tests/data/power_flow/automatic-tap-regulator/single-trafo-min-voltage-tap/sym_output.json
{
  "version": "1.0",
  "type": "sym_output",
  "is_batch": false,
  "attributes": {},
  "data": {
    "node": [
      {
        "id": 2,
        "energized": 1,
        "u_pu": 0.9999994897958192,
        "u": 9999.994897958191,
        "u_angle": -4.976276188195561e-08,
        "p": 1002.829609258255,
        "q": 5027.202969858203
      },
      {
        "id": 4,
        "energized": 1,
        "u_pu": 0.9751874571379635,
        "u": 390.0749828551854,
        "u_angle": -2.618511710996588,
        "p": -1000,
        "q": -5000.000000000176
      }
    ],
    "transformer": [
      {
        "id": 3,
        "energized": 1,
        "loading": 0.05126249791549004,
        "p_from": 1002.829609258255,
        "q_from": 5027.202969858203,
        "i_from": 0.2959643207106418,
        "s_from": 5126.249791549004,
        "p_to": -1000,
        "q_to": -5000.000000000176,
        "i_to": 7.547062534561395,
        "s_to": 5099.019513592958
      }
    ],
    "sym_load": [
      {
        "id": 5,
        "energized": 1,
        "p": 1000,
        "q": 5000,
        "i": 7.547062534561141,
        "s": 5099.019513592785,
        "pf": 0.196116135138184
      }
    ],
    "source": [
      {
        "id": 1,
        "energized": 1,
        "p": 1002.829609193285,
        "q": 5027.202968741678,
        "i": 0.2959643206466909,
        "s": 5126.249790441341,
        "pf": 0.1956263643381582
      }
    ],
    "transformer_tap_regulator": [
      {
        "id": 7,
        "energized": 1,
        "tap_pos": 2
      }
    ]
  }
}
